#!sh Packages
 &PACKAGES
 useGMRedi=.FALSE.,
 useOBCS=.TRUE.,
 useKPP=.TRUE.,
 useCHEAPAML=.TRUE.,
 useDIAGNOSTICS=.TRUE.,
 &end
